sol/case3375wp.m
function mpc = case3375wp
%CASE3375WP

%% MATPOWER Case Format : Version 2
mpc.version = '2';

%%-----  Power Flow Data  -----%%
%% system MVA base
mpc.baseMVA = 100;

%% bus data
%	bus_i	type	Pd	Qd	Gs	Bs	area	Vm	Va	baseKV	zone	Vmax	Vmin	lam_P	lam_Q	mu_Vmax	mu_Vmin
mpc.bus = [
	10000	1	0	0	0	0	0	1.04685886	-10.4611512	400	0	1.05	0.95	143.5538	-0.0002	0.0000	0.0000;
	10001	1	0	0	0	0	0	1.04832344	-14.5336677	400	0	1.05	0.95	145.7211	0.0059	0.0000	0.0000;
	10002	1	0	0	0	0	0	1.07239331	-16.4540308	220	0	1.11	0.95	146.5905	-0.0188	0.0000	0.0000;
	10003	1	0	0	0	0	0	1.04516187	-17.4363968	400	0	1.05	0.95	147.2988	-0.0226	0.0000	0.0000;
	10004	1	0	0	0	0	0	1.04397551	-13.5650132	400	0	1.05	0.95	145.4222	-0.0729	0.0000	0.0000;
	10005	1	0	0	0	0	0	1.04426728	-15.9981441	400	0	1.05	0.95	146.5368	-0.0080	0.0000	0.0000;
	10006	1	0	0	0	0	0	1.04068858	-9.33987608	400	0	1.05	0.95	143.3002	-0.0540	0.0000	0.0000;
	10007	1	0	0	0	0	0	1.07309873	-15.3878056	220	0	1.11	0.95	145.8687	-0.0354	0.0000	0.0000;
	10008	1	0	0	0	0	0	1.07063691	-17.5772302	220	0	1.11	0.95	147.4164	-0.0553	0.0000	0.0000;
	10009	1	0	0	0	0	0	1.04427119	-16.7820639	400	0	1.05	0.95	146.9713	-0.0180	0.0000	0.0000;
	10010	1	0	0	0	0	0	1.04903608	-11.5852946	400	0	1.05	0.95	144.5866	-0.0531	0.0000	0.0000;
	10011	1	0	0	0	0	0	1.04460797	-18.1164747	400	0	1.05	0.95	147.6307	-0.0710	0.0000	0.0000;
	10012	1	0	0	0	0	0	1.04460797	-18.1164747	400	0	1.05	0.95	147.6307	-0.0710	0.0000	0.0000;
	10013	1	0	0	0	0	0	1.04563422	-11.7923628	400	0	1.05	0.95	144.6341	-0.0799	0.0000	0.0000;
	10014	1	0	0	0	0	0	1.04583496	-11.8238538	400	0	1.05	0.95	144.6453	-0.0849	0.0000	0.0000;
	10015	1	0	0	0	0	0	1.04461277	-17.7212242	400	0	1.05	0.95	147.4624	-0.0538	0.0000	0.0000;
	10016	1	0	0	0	0	0	1.0458211	-11.7113953	400	0	1.05	0.95	144.5726	-0.0737	0.0000	0.0000;
	10017	1	0	0	0	0	0	1.04575611	-11.7154576	400	0	1.05	0.95	144.5908	-0.0761	0.0000	0.0000;
	10018	1	0	0	0	0	0	1.04573766	-11.7082117	400	0	1.05	0.95	144.5908	-0.0760	0.0000	0.0000;
	10019	1	0	0	0	0	0	1.0458403	-11.8238855	400	0	1.05	0.95	144.6453	-0.0850	0.0000	0.0000;
	10020	1	0	0	0	0	0	1.05	-13.5634657	400	0	1.05	0.95	145.3413	-0.0019	209.5091	0.0000;
	10021	1	0	0	0	0	0	1.07620974	-16.1173076	220	0	1.11	0.95	145.8035	-0.0038	0.0000	0.0000;
	10022	1	0	0	0	0	0	1.07472827	-16.5298336	220	0	1.11	0.95	146.2778	-0.0230	0.0000	0.0000;
	10023	1	0	0	0	0	0	1.04572301	-11.2161315	400	0	1.05	0.95	144.3169	0.0075	0.0000	0.0000;
	10024	1	0	0	0	0	0	1.04547431	-11.3156066	400	0	1.05	0.95	144.3698	0.0087	0.0000	0.0000;
	10025	1	0	0	0	0	0	1.0456313	-11.2627215	400	0	1.05	0.95	144.3433	0.0071	0.0000	0.0000;
	10026	1	0	0	0	0	0	1.04126848	-7.45882417	400	0	1.05	0.95	142.4935	-0.0434	0.0000	0.0000;
	10027	1	0	0	0	0	0	1.04166906	-7.18594715	400	0	1.05	0.95	142.3428	-0.0331	0.0000	0.0000;
	10028	1	0	0	0	0	0	1.0417778	-6.98847386	400	0	1.05	0.95	142.2402	-0.0240	0.0000	0.0000;
	10029	1	0	0	0	0	0	1.04902316	-11.037195	400	0	1.05	0.95	144.3489	-0.0237	0.0000	0.0000;
	10030	1	0	0	0	0	0	1.04901357	-11.0319967	400	0	1.05	0.95	144.3489	-0.0237	0.0000	0.0000;
	10031	1	0	0	0	0	0	1.08669249	-11.0615115	220	0	1.11	0.95	141.7063	0.0070	0.0000	0.0000;
	10032	1	0	0	0	0	0	1.04131547	-7.47432981	400	0	1.05	0.95	142.4889	-0.0428	0.0000	0.0000;
	10033	1	0	0	0	0	0	1.04130204	-7.47422877	400	0	1.05	0.95	142.4889	-0.0424	0.0000	0.0000;
	10034	1	0	0	0	0	0	1.04254631	-13.692617	400	0	1.05	0.95	145.4373	-0.0711	0.0000	0.0000;
	10035	1	0	0	0	0	0	1.07242122	-11.8284576	220	0	1.11	0.95	142.5695	0.4220	0.0000	0.0000;
	10036	1	0	0	0	0	0	1.07248304	-11.8361577	220	0	1.11	0.95	142.5690	0.4231	0.0000	0.0000;
	10037	1	0	0	0	0	0	1.04129761	-7.57228399	400	0	1.05	0.95	142.5479	-0.0501	0.0000	0.0000;
	10038	1	0	0	0	0	0	1.0413432	-7.5803945	400	0	1.05	0.95	142.5481	-0.0488	0.0000	0.0000;
	10039	1	0	0	0	0	0	1.04177382	-7.61797699	400	0	1.05	0.95	142.4980	-0.1581	0.0000	0.0000;
	10040	1	0	0	0	0	0	1.04503398	-12.6678309	400	0	1.05	0.95	144.5550	-0.0251	0.0000	0.0000;
	10041	1	0	0	0	0	0	1.04908042	-11.1707907	400	0	1.05	0.95	144.4011	-0.0297	0.0000	0.0000;
	10042	1	0	0	0	0	0	1.04480387	-18.3837515	400	0	1.05	0.95	147.7397	-0.0849	0.0000	0.0000;
	10043	1	0	0	0	0	0	1.06606493	-13.9234634	220	0	1.11	0.95	145.6878	0.0612	0.0000	0.0000;
	10044	1	0	0	0	0	0	1.07317999	-13.089388	220	0	1.11	0.95	144.9808	-0.0003	0.0000	0.0000;
	10045	1	0	0	0	0	0	1.06730993	-18.438678	220	0	1.11	0.95	148.2180	-0.0188	0.0000	0.0000;
	10046	1	0	0	0	0	0	1.0746878	-16.5293424	220	0	1.11	0.95	146.2778	-0.0205	0.0000	0.0000;
	10047	1	0	0	0	0	0	1.04338374	-19.2620706	400	0	1.05	0.95	148.0856	-0.0410	0.0000	0.0000;
	10048	1	0	0	0	0	0	1.04590532	-10.9560955	400	0	1.05	0.95	143.8458	-0.0044	0.0000	0.0000;
	10049	1	0	0	0	0	0	1.04879942	-11.4577673	400	0	1.05	0.95	144.2686	-0.1637	0.0000	0.0000;
	10050	1	0	0	0	0	0	1.04908042	-11.1707907	400	0	1.05	0.95	144.4011	-0.0297	0.0000	0.0000;
	10051	1	0	0	0	0	0	1.06430685	-18.1885121	220	0	1.11	0.95	148.2767	-0.0371	0.0000	0.0000;
	10052	1	0	0	0	0	0	1.04269235	-16.0256998	400	0	1.05	0.95	146.6319	-0.0517	0.0000	0.0000;
	10053	1	0	0	0	0	0	1.08837902	-10.5027139	220	0	1.11	0.95	141.3289	0.0034	0.0000	0.0000;
	10054	1	0	0	0	0	0	1.08837902	-10.5027139	220	0	1.11	0.95	141.3289	0.0034	0.0000	0.0000;
	10055	1	0	0	0	0	0	1.08012428	-14.4232957	220	0	1.11	0.95	144.4628	-0.0082	0.0000	0.0000;
	10056	1	0	0	0	0	0	1.04165577	-9.59442186	400	0	1.05	0.95	143.4352	-0.0784	0.0000	0.0000;
	10057	1	0	0	0	0	0	1.03957563	-8.5668609	400	0	1.05	0.95	142.9172	-0.1194	0.0000	0.0000;
	10058	1	0	0	0	0	0	1.05993971	-16.3807457	220	0	1.11	0.95	147.2170	0.0208	0.0000	0.0000;
	10059	1	0	0	0	0	0	1.05	-15.4572097	400	0	1.05	0.95	146.3504	-0.2141	1854.8190	0.0000;
	10060	1	0	0	0	0	0	1.0413204	-7.57633933	400	0	1.05	0.95	142.5480	-0.0495	0.0000	0.0000;
	10061	1	0	0	0	0	0	1.04165577	-9.59442186	400	0	1.05	0.95	143.4352	-0.0784	0.0000	0.0000;
	10062	1	0	0	0	0	0	1.04291852	-15.2511628	400	0	1.05	0.95	146.1732	-0.0019	0.0000	0.0000;
	10063	1	0	0	0	0	0	1.04583187	-11.8238415	400	0	1.05	0.95	144.6453	-0.0848	0.0000	0.0000;
	10064	1	0	0	0	0	0	1.06576704	-15.9045844	220	0	1.11	0.95	146.3179	-0.1220	0.0000	0.0000;
	10065	1	0	0	0	0	0	1.04675023	-13.1429464	400	0	1.05	0.95	145.2851	-0.1100	0.0000	0.0000;
	10066	1	0	0	0	0	0	1.04881174	-11.8542194	400	0	1.05	0.95	144.6211	-0.1241	0.0000	0.0000;
	10067	1	0	0	0	0	0	1.06759059	-15.0090521	220	0	1.11	0.95	146.2097	-0.0449	0.0000	0.0000;
	10068	1	0	0	0	0	0	1.04904946	-12.7456978	400	0	1.05	0.95	145.0499	-0.1507	0.0000	0.0000;
	10069	1	0	0	0	0	0	1.06636844	-18.7638938	220	0	1.11	0.95	148.1078	-0.0245	0.0000	0.0000;
	10070	1	0	0	0	0	0	1.04456223	-18.1162254	400	0	1.05	0.95	147.6307	-0.0697	0.0000	0.0000;
	10071	2	16	8	0	0	0	1.07605274	-14.7681781	220	0	1.11	0.95	145.2402	0.0000	0.0000	0.0000;
	10072	1	0	0	0	0	0	1.0858379	-11.2372171	220	0	1.11	0.95	141.9067	0.0106	0.0000	0.0000;
	10073	1	0	0	0	0	1	1.07457939	-12.826826	220	0	1.11	0.95	143.5793	0.1419	0.0000	0.0000;
	10074	1	0	0	0	0	0	1.07372563	-12.8027027	220	0	1.11	0.95	143.5653	0.1854	0.0000	0.0000;
	10075	1	0	0	0	0	0	1.07244266	-13.6351043	220	0	1.11	0.95	144.4436	0.1181	0.0000	0.0000;
	10076	1	0	0	0	0	0	1.04546308	-11.3155442	400	0	1.05	0.95	144.3698	0.0090	0.0000	0.0000;
	10077	1	0	0	0	0	0	1.04546308	-11.3155442	400	0	1.05	0.95	144.3698	0.0090	0.0000	0.0000;
	10078	1	305.5	-14	0	0	0	1.0344416	-7.6196596	400	0	1.05	0.95	142.4510	-0.0931	0.0000	0.0000;
	10079	2	-1529.6	4542.9	0	0	0	1.01322293	0.622653454	400	0	1.05	0.95	138.6837	0.0000	0.0000	0.0000;
	10080	2	-159.1	-181	0	0	0	1.02822533	-4.07919009	400	0	1.05	0.95	140.4958	-0.0000	0.0000	0.0000;
	10081	1	-1078.3	-374.1	0	0	0	1.03443166	-0.19707106	400	0	1.05	0.95	138.8868	-0.6511	0.0000	0.0000;
	10082	1	943.2	310.2	0	0	0	1.0037	-3.77443693	400	0	1.05	0.95	140.6043	0.1651	0.0000	0.0000;
	10083	1	97	26	0	0	0	1.04053239	-4.51194671	400	0	1.05	0.95	140.9937	0.0150	0.0000	0.0000;
	10084	1	0.6	160	0	0	0	1.04149317	-4.31669601	400	0	1.05	0.95	140.9398	0.0376	0.0000	0.0000;
	10085	1	161.6	183.6	0	0	0	1.04040167	-4.46668386	400	0	1.05	0.95	140.9855	0.0368	0.0000	0.0000;
	10086	1	288.6	221.6	0	0	0	1.04039029	-4.46933869	400	0	1.05	0.95	140.9856	0.0368	0.0000	0.0000;
	10087	1	0	0	0	0	0	1.0425511	-4.19602891	400	0	1.05	0.95	140.8987	0.0327	0.0000	0.0000;
	10088	1	0	0	0	0	0	1.08852792	-4.62822989	220	0	1.11	0.95	140.8916	-0.0021	0.0000	0.0000;
	10089	1	0	0	0	0	0	1.08628447	-4.75312354	220	0	1.11	0.95	140.9730	0.0601	0.0000	0.0000;
	10090	2	274.4	279.6	0	0	0	1.04046679	-4.51570909	400	0	1.05	0.95	140.9806	0.0000	0.0000	0.0000;
	10091	1	94.2	111.8	0	0	0	1.03994041	-4.57176321	400	0	1.05	0.95	140.9838	-0.0128	0.0000	0.0000;
	10092	1	0	0	0	0	0	1.08466298	-4.84247373	220	0	1.11	0.95	141.0261	0.0959	0.0000	0.0000;
	10093	1	0	0	0	0	0	1.08732064	-4.69751795	220	0	1.11	0.95	140.9207	0.0159	0.0000	0.0000;
	10094	2	0	0	0	0	0	1.03524468	-3.82621714	400	0	1.05	0.95	140.2118	0.0000	0.0000	0.0000;
	10095	2	4.4	-2590.1	0	0	0	1.02948368	-5.20748214	400	0	1.05	0.95	140.9297	-0.0000	0.0000	0.0000;
	10096	1	488	79.1	0	0	0	1.0211314	-5.42107234	400	0	1.05	0.95	140.9365	0.2309	0.0000	0.0000;
	10097	1	601	147.9	0	0	0	1.02448744	-5.32879439	400	0	1.05	0.95	140.9428	0.0994	0.0000	0.0000;
	10098	1	527	265.1	0	0	0	1.02568399	-4.6111962	400	0	1.05	0.95	140.5033	0.0973	0.0000	0.0000;
	10099	1	0	0	0	0	0	1.00486471	-1.74777538	400	0	1.05	0.95	139.5882	-0.0876	0.0000	0.0000;
	10100	2	0	0	0	0	0	1.04046309	-0.194389703	400	0	1.05	0.95	138.5571	-0.0000	0.0000	0.0000;
	10101	1	0	0	0	0	0	1.04177661	-16.2296857	220	0	1.11	0.95	151.7700	1.5905	0.0000	0.0000;
	10102	1	120	25	0	0	0	1.06229633	-9.03008725	220	0	1.11	0.95	141.8447	0.1008	0.0000	0.0000;
	10103	1	0	0	0	0	0	1.03953248	-2.57279657	400	0	1.05	0.95	139.6666	0.0047	0.0000	0.0000;
	10104	2	200.2	48.7	0	0	0	1.043889	-1.4567397	400	0	1.05	0.95	138.5814	0.0000	0.0000	0.0000;
	10105	1	0	0	0	0	0	1.06455174	-7.17103369	220	0	1.11	0.95	141.9945	0.1247	0.0000	0.0000;
	10106	1	0	0	0	0	0	1.03430745	-3.86983651	400	0	1.05	0.95	140.4157	0.0556	0.0000	0.0000;
	10107	1	0	0	0	0	0	1.04208032	-2.19880047	400	0	1.05	0.95	139.6306	-0.0884	0.0000	0.0000;
	10108	1	0	0	0	0	0	1.04267097	-1.88228501	400	0	1.05	0.95	139.4709	-0.0808	0.0000	0.0000;
	10109	1	0	0	0	0	0	1.04204033	-2.12219015	400	0	1.05	0.95	139.5912	-0.0834	0.0000	0.0000;
	10110	1	0	0	0	0	0	1.04265577	-1.80103008	400	0	1.05	0.95	139.4270	-0.0762	0.0000	0.0000;
	10111	1	0	0	0	0	0	1.02622149	-1.10470815	400	0	1.05	0.95	139.2469	-0.6519	0.0000	0.0000;
	10112	1	0	0	0	0	0	1.10808995	-4.33839148	220	0	1.11	0.95	139.6958	-3.5142	0.0000	0.0000;
	10113	1	0	0	0	0	0	1.01802495	-1.82184027	400	0	1.05	0.95	139.3961	-0.1065	0.0000	0.0000;
	10114	1	0	0	0	0	0	1.09056955	-6.28794677	220	0	1.11	0.95	140.0257	-1.9601	0.0000	0.0000;
	10115	2	0	0	0	0	0	1.00240026	-1.5270165	400	0	1.05	0.95	139.4796	-0.0000	0.0000	0.0000;
	10116	2	0	0	0	0	0	1.00240026	-1.5270165	400	0	1.05	0.95	139.4796	-0.0000	0.0000	0.0000;
	10117	1	0	0	0	0	0	1.03194484	-4.52143994	400	0	1.05	0.95	140.6348	0.0428	0.0000	0.0000;
	10118	2	0	0	0	0	0	1.04075414	0.174364504	400	0	1.05	0.95	138.3650	0.0000	0.0000	0.0000;
	10119	1	0	0	0	0	0	1.01219247	-2.61044136	400	0	1.05	0.95	139.8900	-0.5348	0.0000	0.0000;
	10120	1	0	0	0	0	0	1.03959515	-3.06372276	400	0	1.05	0.95	139.9153	-0.0398	0.0000	0.0000;
	10121	1	80	20	0	0	0	1.05915939	-8.7965094	220	0	1.11	0.95	141.2639	0.4142	0.0000	0.0000;
	10122	1	0	0	0	0	0	1.05016123	-9.12962298	220	0	1.11	0.95	144.0801	0.2014	0.0000	0.0000;
	10123	1	0	0	0	0	0	1.04892804	-3.2318279	400	0	1.05	0.95	139.9523	0.0003	0.0000	0.0000;
	10124	1	0	0	0	0	0	1.05	0.164673747	400	0	1.05	0.95	138.6010	-0.3109	2790.5378	0.0000;
	10125	1	0	0	0	0	0	1.01301246	-3.64341257	400	0	1.05	0.95	140.3454	-0.0199	0.0000	0.0000;
	10126	2	0	0	0	0	0	1.00791898	-2.81147619	400	0	1.05	0.95	139.9681	-0.0000	0.0000	0.0000;
	10127	1	0	0	0	0	0	1.09609631	-6.54839386	220	0	1.11	0.95	140.0122	-4.3079	0.0000	0.0000;
	10128	1	0	0	0	0	0	1.09609631	-6.54839386	220	0	1.11	0.95	140.0122	-4.3079	0.0000	0.0000;
	10129	2	0.2	100	0	0	0	1.0453446	1.12405488	400	0	1.05	0.95	138.1528	-0.0000	0.0000	0.0000;
	10130	1	0	0	0	0	0	1.04542597	1.09759986	400	0	1.05	0.95	138.1730	-0.0082	0.0000	0.0000;
	10131	1	0	0	0	0	0	1.00949652	-3.31369726	400	0	1.05	0.95	140.2456	0.0885	0.0000	0.0000;
	10132	2	0	0	0	0	0	1.029148	-3.92106282	400	0	1.05	0.95	140.6006	-0.0000	0.0000	0.0000;
	10133	1	0	0	0	0	0	1.05	-3.12495196	400	0	1.05	0.95	140.1975	-0.3631	7857.5139	0.0000;
	10134	1	0	0	0	0	0	1.04703903	-3.73309487	400	0	1.05	0.95	140.5324	-0.0511	0.0000	0.0000;
	10135	1	0	0	0	0	0	1.0506382	-8.95847238	220	0	1.11	0.95	141.0768	0.9900	0.0000	0.0000;
	10136	1	0	0	0	0	0	1.071545	-6.85096581	220	0	1.11	0.95	141.4568	-0.2461	0.0000	0.0000;
	10137	1	0	0	0	0	0	1.04057686	-18.7626836	220	0	1.11	0.95	155.5380	1.3204	0.0000	0.0000;
	10138	1	0	0	0	0	0	1.03370904	-4.31556905	400	0	1.05	0.95	140.5669	-0.0541	0.0000	0.0000;
	10139	2	0	0	0	0	0	1.03707435	-1.03117054	400	0	1.05	0.95	138.9777	-0.0000	0.0000	0.0000;
	10140	2	0	0	0	0	0	1.03821401	-0.547675973	400	0	1.05	0.95	138.7202	-0.0000	0.0000	0.0000;
	10141	2	0	0	0	0	0	1.01272309	-0.925463227	400	0	1.05	0.95	138.9260	-0.0000	0.0000	0.0000;
	10142	1	0	0	0	0	0	1.03715479	-4.02497267	400	0	1.05	0.95	140.4065	-0.1044	0.0000	0.0000;
	10143	1	0	0	0	0	0	1.03559994	-2.32187474	400	0	1.05	0.95	139.6035	-0.1576	0.0000	0.0000;
	10144	1	0	0	0	0	0	1.0356193	-2.32077747	400	0	1.05	0.95	139.6025	-0.1587	0.0000	0.0000;
	10145	1	0	0	0	0	0	1.01028203	-3.07204265	400	0	1.05	0.95	140.2236	-0.1211	0.0000	0.0000;
	10146	2	0	0	0	0	0	1.04317276	-2.84813391	220	0	1.11	0.95	140.2038	-0.0000	0.0000	0.0000;
	10147	1	0	0	0	0	0	1.03120962	-4.74147955	400	0	1.05	0.95	140.9805	-0.0986	0.0000	0.0000;
	10148	1	0	0	0	0	0	1.07347755	-6.51770833	220	0	1.11	0.95	141.0070	-0.2645	0.0000	0.0000;
	10149	1	0	0	0	0	0	1.07345845	-6.52058293	220	0	1.11	0.95	141.0103	-0.2632	0.0000	0.0000;
	10150	2	0	0	0	0	0	1.0399478	-2.44664669	400	0	1.05	0.95	139.5989	0.0000	0.0000	0.0000;
	10151	1	0	0	0	0	0	1.04130512	-2.50702154	400	0	1.05	0.95	139.7002	0.0011	0.0000	0.0000;
	10152	1	0	0	0	0	0	1.04651516	-0.383774831	400	0	1.05	0.95	138.8374	-0.1270	0.0000	0.0000;
	10153	1	0	0	0	0	0	1.03083884	-2.15146832	400	0	1.05	0.95	139.5154	-0.1490	0.0000	0.0000;
	10154	1	80	20	0	0	0	1.03619741	-3.5855159	220	0	1.11	0.95	141.2591	0.2371	0.0000	0.0000;
	10155	1	0	0	0	0	0	1.08188285	-6.69788235	220	0	1.11	0.95	140.6622	-1.5441	0.0000	0.0000;
	10156	1	0	0	0	0	0	1.03022659	-4.49752879	400	0	1.05	0.95	140.8316	0.0007	0.0000	0.0000;
	10157	1	0	0	0	0	0	1.08633929	-4.67584854	220	0	1.11	0.95	140.8468	0.0396	0.0000	0.0000;
	10158	1	0	0	0	0	0	1.01375114	-2.26947199	400	0	1.05	0.95	139.6685	-0.7649	0.0000	0.0000;
	10159	1	0	0	0	0	0	1.11	-4.20039986	220	0	1.11	0.95	139.5109	-3.5829	18443.0084	0.0000;
	10160	1	0	0	0	0	0	1.06523227	-19.9034	220	0	1.11	0.95	156.8775	-0.0006	0.0000	0.0000;
	10161	1	0	0	0	0	0	1.02088101	-4.02853428	400	0	1.05	0.95	140.7548	-0.1923	0.0000	0.0000;
	10162	1	0	0	0	0	0	1.05921018	-8.25054587	220	0	1.11	0.95	142.7847	-0.1374	0.0000	0.0000;
	10163	1	0	0	0	0	0	1.09451486	-6.7609012	220	0	1.11	0.95	139.9876	-6.7429	0.0000	0.0000;
	10164	1	0	0	0	0	0	1.02862513	-4.1228048	400	0	1.05	0.95	140.5218	-0.0111	0.0000	0.0000;
	10165	1	0	0	0	0	0	1.03261709	-5.0809905	400	0	1.05	0.95	141.0428	-0.0235	0.0000	0.0000;
	10166	1	0	0	0	0	0	1.06961468	-8.06628885	220	0	1.11	0.95	140.4821	-0.0721	0.0000	0.0000;
	10167	1	0	0	0	0	0	1.02907158	-4.41297073	400	0	1.05	0.95	140.8377	-0.0197	0.0000	0.0000;
	10168	1	0	0	0	0	0	1.02907158	-4.41297073	400	0	1.05	0.95	140.8377	-0.0197	0.0000	0.0000;
	10169	1	0	0	0	0	0	1.02941599	-4.36645674	400	0	1.05	0.95	140.8094	-0.0281	0.0000	0.0000;
	10170	1	0	0	0	0	0	1.02941599	-4.36645674	400	0	1.05	0.95	140.8094	-0.0281	0.0000	0.0000;
	10171	2	-104.8	-159	0	0	0	1.02910973	-3.82161051	400	0	1.05	0.95	140.2104	-0.0000	0.0000	0.0000;
	10172	1	247.4	-57.5	0	0	0	1.02950885	-5.21201047	400	0	1.05	0.95	140.9300	-0.0003	0.0000	0.0000;
	10173	1	247.4	-57.5	0	0	0	1.02950885	-5.21201047	400	0	1.05	0.95	140.9300	-0.0003	0.0000	0.0000;
	10174	1	371.5	403.5	0	0	0	1.02047249	-5.44259106	400	0	1.05	0.95	140.9507	0.2515	0.0000	0.0000;
	10176	2	-249.9	162.6	0	0	0	1.02954107	-3.9798729	400	0	1.05	0.95	140.0956	0.0000	0.0000	0.0000;
	10177	2	-249.9	162.6	0	0	0	1.02954107	-3.9798729	400	0	1.05	0.95	140.0956	0.0000	0.0000	0.0000;
	10178	1	52.5	207.2	0	0	0	1.02730959	-10.1203515	400	0	1.05	0.95	144.0858	0.3135	0.0000	0.0000;
	10179	1	379.5	54.6	0	0	0	1.03894794	-12.8683292	400	0	1.05	0.95	144.9038	0.0195	0.0000	0.0000;
	10180	1	73.6	-95.6	0	0	0	1.08763825	-16.3730079	220	0	1.11	0.95	146.6753	-1.5423	0.0000	0.0000;
	10181	1	73.6	-95.6	0	0	0	1.08763825	-16.3730079	220	0	1.11	0.95	146.6753	-1.5423	0.0000	0.0000;
	10182	1	107.2	-44.4	0	0	0	1.05	-12.3052951	400	0	1.05	0.95	144.6550	-0.4378	4649.2925	0.0000;
	10183	1	86	8	0	0	0	1.04861832	-10.1468309	400	0	1.05	0.95	143.8733	-0.1044	0.0000	0.0000;
	10184	1	70	49	0	0	0	1.05077205	-14.0464604	220	0	1.11	0.95	145.5403	0.4433	0.0000	0.0000;
	10185	1	0	0	0	0	0	1.04939986	-12.4119351	400	0	1.05	0.95	145.0569	-0.3422	0.0000	0.0000;
	10186	2	0	0	0	0	0	1.08934111	-7.28458501	220	0	1.11	0.95	141.9224	0.0000	0.0000	0.0000;
	10187	2	0	0	0	0	0	1.0894141	-7.25161794	220	0	1.11	0.95	141.9142	0.0000	0.0000	0.0000;
	10188	2	0	0	0	0	0	1.0459408	-8.81283622	400	0	1.05	0.95	143.3574	-0.0000	0.0000	0.0000;
	10189	2	10.2	0	0	0	0	1.04561921	-10.0382168	400	0	1.05	0.95	143.7553	-0.0000	0.0000	0.0000;
	10190	2	0	0	0	0	0	1.04289258	-9.6601042	400	0	1.05	0.95	143.8143	-0.0000	0.0000	0.0000;
	10191	2	0	0	0	0	0	1.04290178	-9.65471834	400	0	1.05	0.95	143.8138	-0.0000	0.0000	0.0000;
	10192	2	0	0	0	0	0	1.04091628	-10.8360013	220	0	1.11	0.95	143.4094	0.0000	0.0000	0.0000;
	10193	1	0	0	0	0	0	1.04091195	-10.8383115	220	0	1.11	0.95	143.4094	-0.0000	0.0000	0.0000;
	10194	2	0	0	0	0	0	1.03587234	-9.15765673	400	0	1.05	0.95	144.0671	-0.0000	0.0000	0.0000;
	10195	1	0	0	0	0	0	1.03664493	-9.1966623	400	0	1.05	0.95	144.0828	-0.0206	0.0000	0.0000;
	10196	2	0	0	0	0	0	1.04095388	-12.3481848	400	0	1.05	0.95	144.7163	-0.0000	0.0000	0.0000;
	10197	1	295	51.9	0	0	0	1.04399868	-11.9426948	400	0	1.05	0.95	144.7478	-0.1061	0.0000	0.0000;
	10198	1	0	0	0	0	0	1.04668614	-10.5401512	400	0	1.05	0.95	143.9557	-0.0408	0.0000	0.0000;
	10199	1	308	40	0	0	0	1.08154962	-9.77712924	220	0	1.11	0.95	143.2055	0.0505	0.0000	0.0000;
	10200	1	0	0	0	0	0	1.0815633	-9.76041972	220	0	1.11	0.95	143.2055	0.0509	0.0000	0.0000;
...
];

%% generator data
%	bus	Pg	Qg	Qmax	Qmin	Vg	mBase	status	Pmax	Pmin	Pc1	Pc2	Qc1min	Qc1max	Qc2min	Qc2max	ramp_agc	ramp_10	ramp_30	ramp_q	apf	mu_Pmax	mu_Pmin	mu_Qmax	mu_Qmin
mpc.gen = [
	10071	133.9	0.732980739	99999	-99999	1.07605274	285	1	204.6	133.9	0	0	0	0	0	0	0	0	0	0	0	0.0000	53.6198	0.0000	0.0000;
	10079	359.9	4406.75822	99999	-99999	1.01322293	2031	1	549.9	359.9	0	0	0	0	0	0	0	0	0	0	0	0.0000	101.5763	0.0000	0.0000;
	10080	7.60000001	-357.183074	99999	-99999	1.02822533	119	1	11.6	7.6	0	0	0	0	0	0	0	0	0	0	0	0.0000	99.7642	0.0000	0.0000;
	10090	410.4	160.874998	99999	-99999	1.04046679	806	1	627	410.4	0	0	0	0	0	0	0	0	0	0	0	0.0000	99.2794	0.0000	0.0000;
	10094	554.4	10829.9278	99999	-99999	1.03524468	970	1	847	554.4	0	0	0	0	0	0	0	0	0	0	0	0.0000	100.0482	0.0000	0.0000;
	10095	121.8	-2580.00979	99999	-99999	1.02948368	1439	1	1241.5	121.8	0	0	0	0	0	0	0	0	0	0	0	0.0000	99.3303	0.0000	0.0000;
	10100	1267.2	-124.827295	99999	-99999	1.04046309	2202	1	1936	1267.2	0	0	0	0	0	0	0	0	0	0	0	0.0000	101.7029	0.0000	0.0000;
	10104	540	56.7973624	99999	-99999	1.043889	939	1	825	540	0	0	0	0	0	0	0	0	0	0	0	0.0000	101.6786	0.0000	0.0000;
	10115	280.8	-227.736846	99999	-99999	1.00240026	492	1	429	280.8	0	0	0	0	0	0	0	0	0	0	0	0.0000	100.7804	0.0000	0.0000;
	10116	280.8	-227.736846	99999	-99999	1.00240026	492	1	429	280.8	0	0	0	0	0	0	0	0	0	0	0	0.0000	100.7804	0.0000	0.0000;
	10118	1080	69.7454436	99999	-99999	1.04075414	1876	1	1650	1080	0	0	0	0	0	0	0	0	0	0	0	0.0000	101.8950	0.0000	0.0000;
	10126	424.8	-430.948494	99999	-99999	1.00791898	786	1	649	424.8	0	0	0	0	0	0	0	0	0	0	0	0.0000	100.2919	0.0000	0.0000;
	10129	1656	-431.191173	99999	-99999	1.0453446	2974	1	2530	1656	0	0	0	0	0	0	0	0	0	0	0	0.0000	102.1072	0.0000	0.0000;
	10132	583.2	-86.8788346	99999	-99999	1.029148	1014	1	891	583.2	0	0	0	0	0	0	0	0	0	0	0	0.0000	99.6594	0.0000	0.0000;
	10139	648	-211.75523	99999	-99999	1.03707435	1143	1	990	648	0	0	0	0	0	0	0	0	0	0	0	0.0000	101.2823	0.0000	0.0000;
	10140	972	-199.420834	99999	-99999	1.03821401	1705	1	1485	972	0	0	0	0	0	0	0	0	0	0	0	0.0000	101.5398	0.0000	0.0000;
	10141	1224	-430.738987	99999	-99999	1.01272309	2125	1	1870	1224	0	0	0	0	0	0	0	0	0	0	0	0.0000	101.3340	0.0000	0.0000;
	10146	115.2	-174.967133	99999	-99999	1.04317276	224	1	176	115.2	0	0	0	0	0	0	0	0	0	0	0	0.0000	100.0562	0.0000	0.0000;
	10150	201.6	11.6111093	99999	-99999	1.0399478	427	1	308	201.6	0	0	0	0	0	0	0	0	0	0	0	0.0000	100.6611	0.0000	0.0000;
	10171	84.6	-10679.3702	99999	-99999	1.02910973	715	1	129.3	84.6	0	0	0	0	0	0	0	0	0	0	0	0.0000	100.0496	0.0000	0.0000;
	10176	191	283.369055	99999	-99999	1.02954107	346	1	291.8	191	0	0	0	0	0	0	0	0	0	0	0	0.0000	100.1644	0.0000	0.0000;
	10177	191	283.369055	99999	-99999	1.02954107	346	1	291.8	191	0	0	0	0	0	0	0	0	0	0	0	0.0000	100.1644	0.0000	0.0000;
	10186	342.7	27.0294914	99999	-99999	1.08934111	618	1	534.6	342.7	0	0	0	0	0	0	0	0	0	0	0	0.0000	94.7776	0.0000	0.0000;
	10187	342.7	27.1308673	99999	-99999	1.0894141	618	1	534.6	342.7	0	0	0	0	0	0	0	0	0	0	0	0.0000	94.7858	0.0000	0.0000;
	10188	347.8	-76.5032351	99999	-99999	1.0459408	618	1	531.3	347.8	0	0	0	0	0	0	0	0	0	0	0	0.0000	93.3426	0.0000	0.0000;
	10189	283	-60.2775888	99999	-99999	1.04561921	620	1	542.3	283	0	0	0	0	0	0	0	0	0	0	0	0.0000	92.9447	0.0000	0.0000;
	10190	371.5	-14.3550853	99999	-99999	1.04289258	683	1	600.6	371.5	0	0	0	0	0	0	0	0	0	0	0	0.0000	92.8857	0.0000	0.0000;
	10191	370.8	-13.7834724	99999	-99999	1.04290178	682	1	599.5	370.8	0	0	0	0	0	0	0	0	0	0	0	0.0000	92.8862	0.0000	0.0000;
	10192	111.6	19.3493073	99999	-99999	1.04091628	281	1	247.5	111.6	0	0	0	0	0	0	0	0	0	0	0	0.0000	93.2906	0.0000	0.0000;
	10194	64.8	-85.1030017	99999	-99999	1.03587234	184	1	143	64.8	0	0	0	0	0	0	0	0	0	0	0	0.0000	92.6329	0.0000	0.0000;
	10196	108	-45.9943652	99999	-99999	1.04095388	215	1	165	108	0	0	0	0	0	0	0	0	0	0	0	0.0000	91.9837	0.0000	0.0000;
	10223	125.5	190.639652	99999	-99999	1.04076999	189	1	125.5	0	0	0	0	0	0	0	0	0	0	0	0	43.3771	0.0000	0.0000	0.0000;
	10225	77.8	132.025423	99999	-99999	1.06256551	333	1	272.8	77.8	0	0	0	0	0	0	0	0	0	0	0	0.0000	54.8905	0.0000	0.0000;
	10226	34.6	97.0840296	99999	-99999	1.06428286	198	1	140.8	34.6	0	0	0	0	0	0	0	0	0	0	0	0.0000	55.3079	0.0000	0.0000;
	10227	11.5	71.8043882	99999	-99999	1.10423936	191	1	17.6	11.5	0	0	0	0	0	0	0	0	0	0	0	0.0000	52.8720	0.0000	0.0000;
	10228	18.7	146.25915	99999	-99999	1.06242991	135	1	28.6	18.7	0	0	0	0	0	0	0	0	0	0	0	0.0000	50.7473	0.0000	0.0000;
	10229	39.6	24.8415065	99999	-99999	1.06890442	85	1	60.5	39.6	0	0	0	0	0	0	0	0	0	0	0	0.0000	52.1128	0.0000	0.0000;
	10230	1.26817136e-08	17.9260359	99999	-99999	1.07302197	132	1	0.1	0	0	0	0	0	0	0	0	0	0	0	0	0.0000	56.9569	0.0000	0.0000;
	10232	11.2	36.1026538	99999	-99999	1.01969451	64	1	17.2	11.2	0	0	0	0	0	0	0	0	0	0	0	0.0000	50.4469	0.0000	0.0000;
	10233	45.4	68.5228401	99999	-99999	1.04669523	79	1	69.3	45.4	0	0	0	0	0	0	0	0	0	0	0	0.0000	52.9227	0.0000	0.0000;
	10234	3.60000001	205.647817	99999	-99999	1.09120702	115	1	5.5	3.6	0	0	0	0	0	0	0	0	0	0	0	0.0000	51.0439	0.0000	0.0000;
	10235	28.8	18.1335994	99999	-99999	1.080784	83	1	44	28.8	0	0	0	0	0	0	0	0	0	0	0	0.0000	52.8015	0.0000	0.0000;
	10236	119.5	38.3680898	99999	-99999	1.07896774	219	1	182.6	119.5	0	0	0	0	0	0	0	0	0	0	0	0.0000	55.3950	0.0000	0.0000;
	10237	50.4	131.989291	99999	-99999	1.08009646	121	1	77	50.4	0	0	0	0	0	0	0	0	0	0	0	0.0000	52.7713	0.0000	0.0000;
	10238	61.9	122.214259	99999	-99999	1.00799976	179	1	94.6	61.9	0	0	0	0	0	0	0	0	0	0	0	0.0000	51.4468	0.0000	0.0000;
	10239	62.6	39.8698208	99999	-99999	1.06241122	109	1	95.7	62.6	0	0	0	0	0	0	0	0	0	0	0	0.0000	53.7990	0.0000	0.0000;
	10240	1.29214027e-08	11.25492	99999	-99999	1.06647398	128	1	0.1	0	0	0	0	0	0	0	0	0	0	0	0	0.0000	55.9002	0.0000	0.0000;
	10246	146.2	-48.9898476	99999	-99999	1.0393732	262	1	223.3	146.2	0	0	0	0	0	0	0	0	0	0	0	0.0000	54.4103	0.0000	0.0000;
	10247	102.2	-1.45150413	99999	-99999	1.12	215	1	156.2	102.2	0	0	0	0	0	0	0	0	0	0	0	0.0000	57.7522	0.0000	0.0000;
	10248	122.4	6.36565893	99999	-99999	1.11999999	241	1	187	122.4	0	0	0	0	0	0	0	0	0	0	0	0.0000	56.6387	0.0000	0.0000;
	10249	128	-24.1423657	99999	-99999	1.00162675	225	1	195.6	128	0	0	0	0	0	0	0	0	0	0	0	0.0000	51.5992	0.0000	0.0000;
	10250	374.4	-0.812014509	99999	-99999	1.04051296	650	1	572	374.4	0	0	0	0	0	0	0	0	0	0	0	0.0000	54.8188	0.0000	0.0000;
	10251	374.4	-2.2723662	99999	-99999	1.04006113	650	1	572	374.4	0	0	0	0	0	0	0	0	0	0	0	0.0000	54.8007	0.0000	0.0000;
	10252	374.4	-2.22781311	99999	-99999	1.04005417	650	1	572	374.4	0	0	0	0	0	0	0	0	0	0	0	0.0000	54.8007	0.0000	0.0000;
	10253	187.9	33.5089451	99999	-99999	1.01522456	341	1	287.1	187.9	0	0	0	0	0	0	0	0	0	0	0	0.0000	53.1511	0.0000	0.0000;
	10254	342.7	31.3372094	99999	-99999	1.05018343	598	1	523.6	342.7	0	0	0	0	0	0	0	0	0	0	0	0.0000	53.9413	0.0000	0.0000;
	10255	121	5.41883204	99999	-99999	1.03985904	210	1	184.8	121	0	0	0	0	0	0	0	0	0	0	0	0.0000	53.1795	0.0000	0.0000;
	10256	280.8	31.6233943	99999	-99999	1.11985666	489	1	429	280.8	0	0	0	0	0	0	0	0	0	0	0	0.0000	54.7695	0.0000	0.0000;
	10257	140.4	16.2735603	99999	-99999	1.11805872	250	1	214.5	140.4	0	0	0	0	0	0	0	0	0	0	0	0.0000	54.6300	0.0000	0.0000;
	10258	129.6	-2.65105771	99999	-99999	1.10524588	230	1	198	129.6	0	0	0	0	0	0	0	0	0	0	0	0.0000	56.6618	0.0000	0.0000;
	10259	283.7	8.45679084	99999	-99999	0.981848868	519	1	433.4	283.7	0	0	0	0	0	0	0	0	0	0	0	0.0000	56.9036	0.0000	0.0000;
	10260	425.5	9.84363994	99999	-99999	1.10941239	741	1	650.1	425.5	0	0	0	0	0	0	0	0	0	0	0	0.0000	56.9227	0.0000	0.0000;
	10261	579.6	15.6479267	99999	-99999	0.995800044	1100	1	951.5	579.6	0	0	0	0	0	0	0	0	0	0	0	0.0000	54.7418	0.0000	0.0000;
	10262	579.6	15.6936701	99999	-99999	0.995795802	1100	1	951.5	579.6	0	0	0	0	0	0	0	0	0	0	0	0.0000	54.7418	0.0000	0.0000;
	10263	67.7	7.78181296	99999	-99999	1.09205481	121	1	103.4	67.7	0	0	0	0	0	0	0	0	0	0	0	0.0000	57.5743	0.0000	0.0000;
	10264	280.8	-3.53037119	99999	-99999	1.00558633	489	1	429	280.8	0	0	0	0	0	0	0	0	0	0	0	0.0000	56.7342	0.0000	0.0000;
	10265	280.8	-6.48897123	99999	-99999	1.10579729	496	1	429	280.8	0	0	0	0	0	0	0	0	0	0	0	0.0000	56.7088	0.0000	0.0000;
	10266	3.60000001	-7.87923671	99999	-99999	1.04403283	72	1	5.5	3.6	0	0	0	0	0	0	0	0	0	0	0	0.0000	53.0899	0.0000	0.0000;
	10267	4.30000001	43.2771071	99999	-99999	1.08127948	120	1	6.6	4.3	0	0	0	0	0	0	0	0	0	0	0	0.0000	54.0525	0.0000	0.0000;
	10268	20.9	15.5632618	99999	-99999	1.06383651	37	1	31.9	20.9	0	0	0	0	0	0	0	0	0	0	0	0.0000	54.4168	0.0000	0.0000;
	10269	68.4	127.874815	99999	-99999	1.07441309	338	1	291.5	68.4	0	0	0	0	0	0	0	0	0	0	0	0.0000	53.4447	0.0000	0.0000;
	10270	1.33027006e-08	24.4119891	99999	-99999	1.05969795	40	1	0.1	0	0	0	0	0	0	0	0	0	0	0	0	0.0000	54.2981	0.0000	0.0000;
	10271	156.2	71.504611	99999	-99999	1.06486243	286	1	238.7	156.2	0	0	0	0	0	0	0	0	0	0	0	0.0000	50.0483	0.0000	0.0000;
	10272	24.5	16.2342386	99999	-99999	1.07191825	116	1	37.4	24.5	0	0	0	0	0	0	0	0	0	0	0	0.0000	52.1935	0.0000	0.0000;
	10273	165.6	83.1514988	99999	-99999	1.02420998	321	1	253	165.6	0	0	0	0	0	0	0	0	0	0	0	0.0000	50.3333	0.0000	0.0000;
	10274	61.2	118.017019	99999	-99999	1.06483242	317	1	225.5	61.2	0	0	0	0	0	0	0	0	0	0	0	0.0000	54.7136	0.0000	0.0000;
	10275	21.6	5.40876012	99999	-99999	1.06178239	125	1	110	21.6	0	0	0	0	0	0	0	0	0	0	0	0.0000	54.9016	0.0000	0.0000;
	10276	107.3	19.9011338	99999	-99999	1.06029879	189	1	163.9	107.3	0	0	0	0	0	0	0	0	0	0	0	0.0000	50.4411	0.0000	0.0000;
	10277	80.6	58.5076349	99999	-99999	1.06236075	225	1	123.2	80.6	0	0	0	0	0	0	0	0	0	0	0	0.0000	51.9816	0.0000	0.0000;
	10278	129.6	18.7855927	99999	-99999	1.11342981	233	1	198	129.6	0	0	0	0	0	0	0	0	0	0	0	0.0000	57.7123	0.0000	0.0000;
	10279	129.6	18.7855927	99999	-99999	1.11342981	233	1	198	129.6	0	0	0	0	0	0	0	0	0	0	0	0.0000	57.7123	0.0000	0.0000;
	10281	2.90000001	25.3186503	99999	-99999	1.07857986	20	1	4.4	2.9	0	0	0	0	0	0	0	0	0	0	0	0.0000	53.9045	0.0000	0.0000;
	10282	58.3	143.575264	99999	-99999	1.06770015	357	1	287.1	58.3	0	0	0	0	0	0	0	0	0	0	0	0.0000	51.2490	0.0000	0.0000;
	10284	418.3	179.87213	99999	-99999	1.12	919	1	771.1	418.3	0	0	0	0	0	0	0	0	0	0	0	0.0000	52.2632	0.0000	0.0000;
	10285	1.33769805e-08	-21.5620888	99999	-99999	1.05753365	132	1	0.1	0	0	0	0	0	0	0	0	0	0	0	0	0.0000	53.9960	0.0000	0.0000;
	10288	20.9	-26.4376432	99999	-99999	1.03372633	63	1	31.9	20.9	0	0	0	0	0	0	0	0	0	0	0	0.0000	53.3449	0.0000	0.0000;
	10289	0.700000014	-25.0522252	99999	-99999	1.0526138	41	1	34.1	0.7	0	0	0	0	0	0	0	0	0	0	0	0.0000	52.2539	0.0000	0.0000;
	10290	28.1	27.1018158	99999	-99999	1.06115258	49	1	42.9	28.1	0	0	0	0	0	0	0	0	0	0	0	0.0000	50.4967	0.0000	0.0000;
	10291	5.80000001	48.8501776	99999	-99999	1.08349476	71	1	8.8	5.8	0	0	0	0	0	0	0	0	0	0	0	0.0000	50.5947	0.0000	0.0000;
	10292	312.5	164.048191	99999	-99999	1.08664779	638	1	477.4	312.5	0	0	0	0	0	0	0	0	0	0	0	0.0000	56.8361	0.0000	0.0000;
	10293	19.4	20.2979816	99999	-99999	1.07368983	46	1	29.7	19.4	0	0	0	0	0	0	0	0	0	0	0	0.0000	53.2466	0.0000	0.0000;
	10294	7.90000001	33.1163765	99999	-99999	1.0880473	74	1	12.1	7.9	0	0	0	0	0	0	0	0	0	0	0	0.0000	55.2333	0.0000	0.0000;
	10295	151.9	125.265333	99999	-99999	0.995169969	299	1	232.1	151.9	0	0	0	0	0	0	0	0	0	0	0	0.0000	53.9635	0.0000	0.0000;
	10296	197.3	132.356219	99999	-99999	1.08621673	461	1	301.4	197.3	0	0	0	0	0	0	0	0	0	0	0	0.0000	54.0921	0.0000	0.0000;
	24	110.000007	92.579306	140	-49	1.07854613	235.3	1	221	110	0	0	0	0	0	0	0	0	0	0	0	0.0000	0.1066	0.0000	0.0000;
	25	135.000007	-21.9976154	124	-22	1.07847484	235.3	1	200	135	0	0	0	0	0	0	0	0	0	0	0	0.0000	0.1039	0.0000	0.0000;
	37	370	75.6444039	190	-19	1.11	426	1	370	240	0	0	0	0	0	0	0	0	0	0	0	31.6003	0.0000	0.0000	0.0000;
	37	370	75.6444039	190	-19	1.11	426	1	370	240	0	0	0	0	0	0	0	0	0	0	0	31.6003	0.0000	0.0000	0.0000;
	38	370	18.274539	190	-19	1.11	426	1	370	240	0	0	0	0	0	0	0	0	0	0	0	31.0074	0.0000	0.0000	0.0000;
	38	370	18.274539	190	-19	1.11	426	1	370	240	0	0	0	0	0	0	0	0	0	0	0	31.0074	0.0000	0.0000	0.0000;
	39	370	95.196657	190	-19	1.11	426	1	370	240	0	0	0	0	0	0	0	0	0	0	0	31.0086	0.0000	0.0000	0.0000;
	40	370	58.253951	190	-19	1.0475613	426	1	370	240	0	0	0	0	0	0	0	0	0	0	0	32.1149	0.0000	0.0000	0.0000;
	40	370	58.253951	190	-19	1.0475613	426	1	370	240	0	0	0	0	0	0	0	0	0	0	0	32.1149	0.0000	0.0000	0.0000;
	40	370	58.253951	190	-19	1.0475613	426	1	370	240	0	0	0	0	0	0	0	0	0	0	0	32.1149	0.0000	0.0000	0.0000;
	41	370	-6.68783111	190	-19	1.04753778	426	1	370	240	0	0	0	0	0	0	0	0	0	0	0	32.1081	0.0000	0.0000	0.0000;
	41	370	-6.68783111	190	-19	1.04753778	426	1	370	240	0	0	0	0	0	0	0	0	0	0	0	32.1081	0.0000	0.0000	0.0000;
	41	370	-6.68783111	190	-19	1.04753778	426	1	370	240	0	0	0	0	0	0	0	0	0	0	0	32.1081	0.0000	0.0000	0.0000;
	57	132.988842	76.9524691	152	-33	1.10990791	235	1	215	110	0	0	0	0	0	0	0	0	0	0	0	0.0000	0.0000	0.0000	0.0000;
	57	147.145206	76.9524691	152	-33	1.10990791	235	1	220	125	0	0	0	0	0	0	0	0	0	0	0	0.0000	0.0000	0.0000	0.0000;
	58	125.000046	76.0479186	149	-33	1.10976595	235	1	225	125	0	0	0	0	0	0	0	0	0	0	0	0.0000	0.0159	0.0000	0.0000;
	58	0	0	149	-33	1	235	0	225	120	0	0	0	0	0	0	0	0	0	0	0	0.0000	0.0000	0.0000	0.0000;
	58	110.000046	76.0479186	149	-33	1.10976595	235	1	225	110	0	0	0	0	0	0	0	0	0	0	0	0.0000	0.0159	0.0000	0.0000;
	59	224.999967	148.999746	149	-33	1.11	235	1	225	110	0	0	0	0	0	0	0	0	0	0	0	0.0221	0.0000	0.0029	0.0000;
	60	534.992779	174.825723	363	-47	1.05	588	1	535	255	0	0	0	0	0	0	0	0	0	0	0	0.0000	0.0000	0.0000	0.0000;
	61	280.72193	33.4924946	348	-100	1.04999999	588	1	560	250	0	0	0	0	0	0	0	0	0	0	0	0.0000	0.0000	0.0000	0.0000;
	70	129	15.9312953	105	-11	1.10734623	235	1	225	129	0	0	0	0	0	0	0	0	0	0	0	0.0000	4.3172	0.0000	0.0000;
	71	129	31.7404223	105	-11	1.10729067	235	1	225	129	0	0	0	0	0	0	0	0	0	0	0	0.0000	4.3209	0.0000	0.0000;
	71	0	0	99	-10	1	235	0	225	129	0	0	0	0	0	0	0	0	0	0	0	0.0000	0.0000	0.0000	0.0000;
	72	0	0	105	-11	1	235	0	225	129	0	0	0	0	0	0	0	0	0	0	0	0.0000	0.0000	0.0000	0.0000;
	72	129	-10.999999	105	-11	1.04285164	235	1	225	129	0	0	0	0	0	0	0	0	0	0	0	0.0000	4.3746	0.0000	0.7161;
	73	129	-9.999999	99	-10	1.04288215	235	1	225	129	0	0	0	0	0	0	0	0	0	0	0	0.0000	4.3749	0.0000	0.7191;
	73	129	-10.999999	105	-11	1.04288215	235	1	225	129	0	0	0	0	0	0	0	0	0	0	0	0.0000	4.3749	0.0000	0.7191;
	74	112	59.9999608	60	0	1.10429624	120	1	112	0	0	0	0	0	0	0	0	0	0	0	0	144.3798	0.0000	0.0184	0.0000;
	94	220	114.022716	131	-6	1.10244112	270.6	1	220	125	0	0	0	0	0	0	0	0	0	0	0	3.6887	0.0000	0.0000	0.0000;
	94	225	114.022716	131	-6	1.10244112	270.6	1	225	140	0	0	0	0	0	0	0	0	0	0	0	3.6887	0.0000	0.0000	0.0000;
	95	225	85.7739111	131	-6	1.10440348	270.6	1	225	130	0	0	0	0	0	0	0	0	0	0	0	3.2106	0.0000	0.0000	0.0000;
	95	225	85.7739111	131	-6	1.10440348	270.6	1	225	125	0	0	0	0	0	0	0	0	0	0	0	3.2106	0.0000	0.0000	0.0000;
	95	225	85.7739111	131	-6	1.10440348	270.6	1	225	130	0	0	0	0	0	0	0	0	0	0	0	3.2106	0.0000	0.0000	0.0000;
	98	383	14.5394095	213	-31	1.05	426	1	383	220	0	0	0	0	0	0	0	0	0	0	0	13.1284	0.0000	0.0000	0.0000;
	98	380	7.81130537	119	-31	1.05	435.3	1	380	220	0	0	0	0	0	0	0	0	0	0	0	13.1284	0.0000	0.0000	0.0000;
	115	12	0	0	0	1.09644145	12	1	12	0	0	0	0	0	0	0	0	0	0	0	0	138.5804	0.0000	0.1986	0.0000;
	115	5.99999999	0	0	0	1.09644145	6	1	6	0	0	0	0	0	0	0	0	0	0	0	0	138.5804	0.0000	0.1986	0.0000;
	121	0	0	120	-10	1	270.6	0	225	120	0	0	0	0	0	0	0	0	0	0	0	0.0000	0.0000	0.0000	0.0000;
	122	225	119.999879	120	-10	1.10924304	270.6	1	225	120	0	0	0	0	0	0	0	0	0	0	0	6.3245	0.0000	0.0059	0.0000;
	123	120	52.6648978	73	-1	1.10623669	150	1	120	70	0	0	0	0	0	0	0	0	0	0	0	4.7096	0.0000	0.0000	0.0000;
	124	120	25.1563557	73	-1	1.10629987	150	1	120	70	0	0	0	0	0	0	0	0	0	0	0	4.6941	0.0000	0.0000	0.0000;
	134	0	0	80	0	1	150	0	120	70	0	0	0	0	0	0	0	0	0	0	0	0.0000	0.0000	0.0000	0.0000;
	135	119.999999	79.9999935	80	0	1.09919819	150	1	120	70	0	0	0	0	0	0	0	0	0	0	0	1.3380	0.0000	0.1105	0.0000;
	136	80.0000004	30.9999987	31	0	1.07792062	117.5	1	110	80	0	0	0	0	0	0	0	0	0	0	0	0.0000	1.6725	0.5713	0.0000;
	144	215	51.1838179	135	-35	1.10996688	270.6	1	215	135	0	0	0	0	0	0	0	0	0	0	0	8.3970	0.0000	0.0000	0.0000;
	145	215	57.6917043	135	-35	1.11	270.6	1	215	135	0	0	0	0	0	0	0	0	0	0	0	8.3914	0.0000	0.0000	0.0000;
	145	225	60.626829	140	-35	1.11	270.6	1	225	135	0	0	0	0	0	0	0	0	0	0	0	8.3914	0.0000	0.0000	0.0000;
	146	225	-35.4742325	140	-36	1.04284716	270.6	1	225	135	0	0	0	0	0	0	0	0	0	0	0	11.7748	0.0000	0.0000	0.0000;
	146	220	-35.4757792	137	-36	1.04284716	270.6	1	220	135	0	0	0	0	0	0	0	0	0	0	0	11.7748	0.0000	0.0000	0.0000;
	152	0	0	72	-29	1	150	0	135	-135	0	0	0	0	0	0	0	0	0	0	0	0.0000	0.0000	0.0000	0.0000;
	152	0	0	72	-29	1	150	0	135	-135	0	0	0	0	0	0	0	0	0	0	0	0.0000	0.0000	0.0000	0.0000;
	153	0	0	72	-29	1	150	0	135	-135	0	0	0	0	0	0	0	0	0	0	0	0.0000	0.0000	0.0000	0.0000;
	153	0	0	72	-29	1	150	0	135	-135	0	0	0	0	0	0	0	0	0	0	0	0.0000	0.0000	0.0000	0.0000;
	154	120	84.9999983	85	-15	1.0910559	150	1	120	94	0	0	0	0	0	0	0	0	0	0	0	18.5548	0.0000	0.4266	0.0000;
	155	120	84.9999983	85	-15	1.09105353	150	1	120	94	0	0	0	0	0	0	0	0	0	0	0	18.5634	0.0000	0.4266	0.0000;
	155	0	0	85	-15	1	150	0	120	94	0	0	0	0	0	0	0	0	0	0	0	0.0000	0.0000	0.0000	0.0000;
	169	0	0	25	0	1	51.4	0	50	40	0	0	0	0	0	0	0	0	0	0	0	0.0000	0.0000	0.0000	0.0000;
	170	0	0	90	-15	1	150	0	120	80	0	0	0	0	0	0	0	0	0	0	0	0.0000	0.0000	0.0000	0.0000;
	170	0	0	25	0	1	51.4	0	50	45	0	0	0	0	0	0	0	0	0	0	0	0.0000	0.0000	0.0000	0.0000;
	172	100	118.999998	119	-31	1.06907062	252.4	1	232	100	0	0	0	0	0	0	0	0	0	0	0	0.0000	5.3721	0.3403	0.0000;
	172	0	0	111	-21	1	237.5	0	205	135	0	0	0	0	0	0	0	0	0	0	0	0.0000	0.0000	0.0000	0.0000;
	173	0	0	111	-21	1	237.5	0	205	135	0	0	0	0	0	0	0	0	0	0	0	0.0000	0.0000	0.0000	0.0000;
	173	0	0	102	-15	1	252.4	0	222	90	0	0	0	0	0	0	0	0	0	0	0	0.0000	0.0000	0.0000	0.0000;
	174	90.0000002	0.084107915	102	-15	1.03132353	252.4	1	222	90	0	0	0	0	0	0	0	0	0	0	0	0.0000	4.3820	0.0000	0.0000;
	175	90.0000002	88.6730763	102	-15	1.0313587	252.4	1	222	90	0	0	0	0	0	0	0	0	0	0	0	0.0000	4.3813	0.0000	0.0000;
	175	100	80.0210111	93	-10	1.0313587	252.4	1	232	100	0	0	0	0	0	0	0	0	0	0	0	0.0000	4.3813	0.0000	0.0000;
	180	260.999999	98.5727512	127	-35	1.11	287.3	1	261	104	0	0	0	0	0	0	0	0	0	0	0	0.6655	0.0000	0.0000	0.0000;
	180	260.999999	98.5727512	127	-35	1.11	287.3	1	261	104	0	0	0	0	0	0	0	0	0	0	0	0.6655	0.0000	0.0000	0.0000;
	181	205.999999	102.999928	103	-17	1.10999992	238.4	1	206	120	0	0	0	0	0	0	0	0	0	0	0	0.6687	0.0000	0.0108	0.0000;
	181	260.999999	126.99993	127	-35	1.10999992	287.3	1	261	104	0	0	0	0	0	0	0	0	0	0	0	0.6687	0.0000	0.0108	0.0000;
	182	234.999999	13.4908947	145	-38	1.11	263.9	1	235	94	0	0	0	0	0	0	0	0	0	0	0	0.6533	0.0000	0.0000	0.0000;
	182	234.999999	13.4908947	145	-38	1.11	263.9	1	235	94	0	0	0	0	0	0	0	0	0	0	0	0.6533	0.0000	0.0000	0.0000;
	183	205.999999	102.999993	103	-17	1.04847223	238.4	1	206	120	0	0	0	0	0	0	0	0	0	0	0	0.9664	0.0000	0.0897	0.0000;
	183	205.999999	102.999993	103	-17	1.04847223	238.4	1	206	120	0	0	0	0	0	0	0	0	0	0	0	0.9664	0.0000	0.0897	0.0000;
	191	200	103.999999	104	-23	1.08518888	233.2	1	200	150	0	0	0	0	0	0	0	0	0	0	0	27.0509	0.0000	0.5406	0.0000;
	192	200	103.999999	104	-23	1.08490367	233.2	1	200	150	0	0	0	0	0	0	0	0	0	0	0	27.0749	0.0000	0.5494	0.0000;
	192	0	0	104	-23	1	233.2	0	200	145	0	0	0	0	0	0	0	0	0	0	0	0.0000	0.0000	0.0000	0.0000;
	192	0	0	104	-23	1	233.2	0	200	145	0	0	0	0	0	0	0	0	0	0	0	0.0000	0.0000	0.0000	0.0000;
	193	464	293.999998	294	-259	1.03428718	464	1	464	208	0	0	0	0	0	0	0	0	0	0	0	26.5623	0.0000	0.3453	0.0000;
	208	188	99.9999998	100	0	1.06563812	218.3	1	188	76	0	0	0	0	0	0	0	0	0	0	0	12.4450	0.0000	3.9232	0.0000;
	240	179	-61.9974239	105	-62	1.02455364	209	1	179	-200	0	0	0	0	0	0	0	0	0	0	0	22.3125	0.0000	0.0000	0.0000;
	240	179	-61.9974239	105	-62	1.02455364	209	1	179	-200	0	0	0	0	0	0	0	0	0	0	0	22.3125	0.0000	0.0000	0.0000;
	240	0	0	160	-100	1	209	0	179	-200	0	0	0	0	0	0	0	0	0	0	0	0.0000	0.0000	0.0000	0.0000;
	241	179	-11.5229049	160	-100	1.02455613	209	1	179	-200	0	0	0	0	0	0	0	0	0	0	0	22.3119	0.0000	0.0000	0.0000;
	244	220	11.7050479	100	0	1.11	177.1	1	220	112.5	0	0	0	0	0	0	0	0	0	0	0	137.2282	0.0000	0.0000	0.0000;
	254	53.2717693	20	20	0	1.09561457	78.8	1	55	23	0	0	0	0	0	0	0	0	0	0	0	0.0000	0.0000	39.4041	0.0000;
	254	48.2978419	20	20	0	1.09561457	68.8	1	50	25	0	0	0	0	0	0	0	0	0	0	0	0.0000	0.0000	39.4041	0.0000;
	254	48.2978419	20	20	0	1.09561457	68.8	1	50	25	0	0	0	0	0	0	0	0	0	0	0	0.0000	0.0000	39.4041	0.0000;
	254	21.3633409	20	20	0	1.09561457	27.6	1	23	7	0	0	0	0	0	0	0	0	0	0	0	0.0000	0.0000	39.4041	0.0000;
	267	2.1	0.999999776	1	0	1.05857383	0.7	1	2.1	0.5	0	0	0	0	0	0	0	0	0	0	0	158.1593	0.0000	3.2194	0.0000;
	268	2.1	0.999999385	1	0	1.07464247	0.7	1	2.1	0.5	0	0	0	0	0	0	0	0	0	0	0	148.2007	0.0000	1.1769	0.0000;
	278	0	0	5	0	1	10.3	0	7.2	5.9	0	0	0	0	0	0	0	0	0	0	0	0.0000	0.0000	0.0000	0.0000;
	279	0	0	5	0	1	10.3	0	7.2	5.9	0	0	0	0	0	0	0	0	0	0	0	0.0000	0.0000	0.0000	0.0000;
	295	5	3.74999973	3.75	0	1.0825427	5	1	5	1	0	0	0	0	0	0	0	0	0	0	0	158.7814	0.0000	2.6485	0.0000;
	295	5	3.74999973	3.75	0	1.0825427	5	1	5	1	0	0	0	0	0	0	0	0	0	0	0	158.7814	0.0000	2.6485	0.0000;
	295	5	3.74999973	3.75	0	1.0825427	5	1	5	1	0	0	0	0	0	0	0	0	0	0	0	158.7814	0.0000	2.6485	0.0000;
	295	5	3.74999973	3.75	0	1.0825427	5	1	5	1	0	0	0	0	0	0	0	0	0	0	0	158.7814	0.0000	2.6485	0.0000;
	310	370	189.999991	190	-19	0.999931712	426	1	370	240	0	0	0	0	0	0	0	0	0	0	0	31.3249	0.0000	0.0768	0.0000;
	316	0	0	2	0	1	4	0	5.7	1	0	0	0	0	0	0	0	0	0	0	0	0.0000	0.0000	0.0000	0.0000;
	316	0	0	2	0	1	4	0	5.7	1	0	0	0	0	0	0	0	0	0	0	0	0.0000	0.0000	0.0000	0.0000;
	376	6.6	4.99999976	5	0	1.09184841	8.4	1	6.6	5.4	0	0	0	0	0	0	0	0	0	0	0	147.6870	0.0000	2.9557	0.0000;
	379	0.899999995	0.999999576	1	0	1.11141352	0.9	1	0.9	0.3	0	0	0	0	0	0	0	0	0	0	0	143.9062	0.0000	1.7027	0.0000;
	379	0.899999995	0.999999576	1	0	1.11141352	0.9	1	0.9	0.3	0	0	0	0	0	0	0	0	0	0	0	143.9062	0.0000	1.7027	0.0000;
	379	0.899999995	0.999999576	1	0	1.11141352	0.9	1	0.9	0.3	0	0	0	0	0	0	0	0	0	0	0	143.9062	0.0000	1.7027	0.0000;
	383	27	6.99999948	7	0	1.11050877	31.3	1	27	11	0	0	0	0	0	0	0	0	0	0	0	144.0488	0.0000	1.3937	0.0000;
...
];

%% branch data
%	fbus	tbus	r	x	b	rateA	rateB	rateC	ratio	angle	status	angmin	angmax	Pf	Qf	Pt	Qt	mu_Sf	mu_St	mu_angmin	mu_angmax
mpc.branch = [
	10330	10331	1e-05	8e-05	0	99999	19052	19052	0	0	1	-360	360	0.0000	0.0000	0.0000	0.0000	0.0000	0.0000	0.0000	0.0000;
	10300	10355	0.05932	0.20245	0	99999	19052	19052	0	0	1	-360	360	-6.5115	-4.3332	6.5449	4.4469	0.0000	0.0000	0.0000	0.0000;
	10300	10360	0.02058	0.05185	0	99999	19052	19052	0	0	1	-360	360	-27.4885	-8.6668	27.6455	9.0624	0.0000	0.0000	0.0000	0.0000;
	10367	10201	2e-05	-0.04958	0	99999	200	200	0.999	0	1	-360	360	-96.2615	6.9178	96.2633	-11.3344	0.0000	0.0000	0.0000	0.0000;
	10367	10202	6e-05	0.08346	0	99999	200	200	0.99999	0	1	-360	360	96.2615	-6.9178	-96.2562	14.3672	0.0000	0.0000	0.0000	0.0000;
	10366	10367	0.0026	0.25917	0	99999	200	200	0.99999	0	1	-360	360	-0.0000	0.0000	0.0000	-0.0000	0.0000	0.0000	0.0000	0.0000;
	10368	10215	2e-05	-0.04961	0	99999	200	200	0.999	0	1	-360	360	-145.1981	-20.2177	145.2019	10.6627	0.0000	0.0000	0.0000	0.0000;
	10368	10216	6e-05	0.08373	0	99999	200	200	0.99999	0	1	-360	360	145.1981	20.2177	-145.1865	-4.0592	0.0000	0.0000	0.0000	0.0000;
	10369	10368	0.0026	0.26125	0	99999	200	200	0.99999	0	1	-360	360	0.0000	-0.0000	0.0000	0.0000	0.0000	0.0000	0.0000	0.0000;
	10090	10083	8e-05	0.00079	0.41456	99999	1247	1247	0	0	1	-360	360	-9.7737	-30.0888	9.7738	-14.7919	0.0000	0.0000	0.0000	0.0000;
	10138	10164	0.00168	0.01733	0.75504	99999	1746	1746	0	0	1	-360	360	-17.5345	-8.2807	17.5555	-71.7871	0.0000	0.0000	0.0000	0.0000;
	10139	10109	0.00071	0.00594	0.27872	99999	1386	1386	0	0	1	-360	360	331.7028	-138.0401	-330.8765	114.8322	0.0000	0.0000	0.0000	0.0000;
	10139	10144	0.00075	0.00681	0.312	99999	1386	1386	0	0	1	-360	360	353.5371	-29.5608	-352.6644	3.9758	0.0000	0.0000	0.0000	0.0000;
	10139	10153	0.00194	0.02	0.8336	99999	1386	1386	0	0	1	-360	360	106.7402	-21.8264	-106.5251	-65.0747	0.0000	0.0000	0.0000	0.0000;
	10140	10110	0.00071	0.00594	0.27872	99999	1386	1386	0	0	1	-360	360	384.3690	-134.2390	-383.3022	112.9921	0.0000	0.0000	0.0000	0.0000;
	10140	10143	0.00075	0.00681	0.312	99999	1386	1386	0	0	1	-360	360	488.1144	-23.1507	-486.4564	4.6605	0.0000	0.0000	0.0000	0.0000;
	10140	10153	0.00194	0.02	0.8336	99999	1386	1386	0	0	1	-360	360	152.2516	-19.3135	-151.8225	-65.4804	0.0000	0.0000	0.0000	0.0000;
	10141	10153	0.00233	0.01696	0.70784	99999	1746	1746	0	0	1	-360	360	114.8664	-158.8434	-114.2255	89.6017	0.0000	0.0000	0.0000	0.0000;
	10090	10085	0.00017	0.00148	1.23008	99999	1247	1247	0	0	1	-360	360	-61.2471	-54.9425	61.2532	-78.1610	0.0000	0.0000	0.0000	0.0000;
	10141	10158	0.00204	0.01707	0.71344	99999	1746	1746	0	0	1	-360	360	138.5578	-57.5888	-138.1672	-12.3877	0.0000	0.0000	0.0000	0.0000;
	10141	10158	0.00204	0.01707	0.71344	99999	1746	1746	0	0	1	-360	360	138.5578	-57.5888	-138.1672	-12.3877	0.0000	0.0000	0.0000	0.0000;
	10143	10144	1e-05	6e-05	0	99999	1732	1732	0	0	1	-360	360	-38.7237	-26.9507	38.7239	26.9520	0.0000	0.0000	0.0000	0.0000;
	10143	10153	0.00169	0.01381	0.6496	99999	1386	1386	0	0	1	-360	360	-18.3426	3.1482	18.3707	-72.2671	0.0000	0.0000	0.0000	0.0000;
	10143	10156	0.00119	0.00969	0.4544	99999	1386	1386	0	0	1	-360	360	419.6856	-10.5432	-417.7291	-22.0060	0.0000	0.0000	0.0000	0.0000;
	10144	10126	0.00306	0.02537	1.19168	99999	1386	1386	0	0	1	-360	360	48.1920	43.5084	-47.7966	-164.6655	0.0000	0.0000	0.0000	0.0000;
	10144	10153	0.00169	0.01381	0.6496	99999	1386	1386	0	0	1	-360	360	-18.1797	3.2724	18.2078	-72.3920	0.0000	0.0000	0.0000	0.0000;
	10144	10165	0.00244	0.02044	0.9584	99999	831	831	0	0	1	-360	360	250.9126	-60.0659	-249.4786	-30.4128	0.0000	0.0000	0.0000	0.0000;
	10091	10090	9e-05	0.00106	1.10432	99999	1247	1247	0	0	1	-360	360	-103.5000	-102.5202	103.5104	-16.8468	0.0000	0.0000	0.0000	0.0000;
	10145	10147	0.00194	0.01606	0.75456	99999	1787	1787	0	0	1	-360	360	170.9219	-188.0499	-169.9416	117.5379	0.0000	0.0000	0.0000	0.0000;
	10145	10158	0.00189	0.01232	0.61088	99999	1746	1746	0	0	1	-360	360	-117.9062	-40.7198	118.1653	-20.1564	0.0000	0.0000	0.0000	0.0000;
	10171	10094	0	6e-05	0	99999	1593	1593	0	0	1	-360	360	142.7626	-10522.5522	-142.7626	10585.2930	0.0000	0.0000	0.0000	0.0000;
	10145	10082	0.00091	0.00923	0.39197	99999	1642	1642	0	0	1	-360	360	140.4954	39.0147	-140.2883	-76.6621	0.0000	0.0000	0.0000	0.0000;
	10145	10082	0.00091	0.00923	0.39197	99999	1642	1642	0	0	1	-360	360	140.4954	39.0147	-140.2883	-76.6621	0.0000	0.0000	0.0000	0.0000;
	10146	10154	0.00503	0.01845	0.05812	99999	408	408	0	0	1	-360	360	80.3132	14.8662	-80.0000	-20.0000	0.0000	0.0000	0.0000	0.0000;
	10172	10095	0	6e-05	0	99999	1386	1386	0	0	1	-360	360	-139.6089	43.1938	139.6089	-43.1817	0.0000	0.0000	0.0000	0.0000;
	10147	10153	0.00156	0.01288	0.6032	99999	1386	1386	0	0	1	-360	360	-366.1993	23.6809	368.2122	-71.1826	0.0000	0.0000	0.0000	0.0000;
	10173	10095	0	6e-05	0	99999	1386	1386	0	0	1	-360	360	-139.6089	43.1938	139.6089	-43.1817	0.0000	0.0000	0.0000	0.0000;
	10147	10153	0.00156	0.01288	0.6032	99999	1386	1386	0	0	1	-360	360	-366.1993	23.6809	368.2122	-71.1826	0.0000	0.0000	0.0000	0.0000;
	10174	10096	2e-05	0.00016	0.0008	99999	1386	1386	0	0	1	-360	360	-292.5549	-383.6801	292.5996	383.9543	0.0000	0.0000	0.0000	0.0000;
	10147	10161	0.00113	0.00962	0.4528	99999	1787	1787	0	0	1	-360	360	-121.3866	101.7473	121.7114	-146.6528	0.0000	0.0000	0.0000	0.0000;
	10176	10098	0.00029	0.00219	0.11056	99999	1386	1386	0	0	1	-360	360	546.1149	106.0765	-545.2646	-111.3306	0.0000	0.0000	0.0000	0.0000;
	10177	10098	0.00029	0.00219	0.11056	99999	1386	1386	0	0	1	-360	360	546.1149	106.0765	-545.2646	-111.3306	0.0000	0.0000	0.0000	0.0000;
	10147	10169	0.00041	0.00423	0.18496	99999	1386	1386	0	0	1	-360	360	-158.4799	49.7903	158.5904	-68.2842	0.0000	0.0000	0.0000	0.0000;
	10147	10170	0.00041	0.00423	0.18496	99999	1386	1386	0	0	1	-360	360	-158.4799	49.7903	158.5904	-68.2842	0.0000	0.0000	0.0000	0.0000;
	10091	10090	9e-05	0.00106	1.10432	99999	1247	1247	0	0	1	-360	360	-103.5000	-102.5202	103.5104	-16.8468	0.0000	0.0000	0.0000	0.0000;
	10147	10037	0.00105	0.00925	0.37437	99999	1386	1386	0	0	1	-360	360	555.0020	-181.2027	-551.7036	170.0582	0.0000	0.0000	0.0000	0.0000;
	10147	10037	0.00105	0.00925	0.37437	99999	1386	1386	0	0	1	-360	360	555.0020	-181.2027	-551.7036	170.0582	0.0000	0.0000	0.0000	0.0000;
	10148	10136	0.00293	0.01074	0.03436	99999	408	408	0	0	1	-360	360	62.9305	0.3494	-62.8297	-3.9321	0.0000	0.0000	0.0000	0.0000;
	10148	10149	2e-05	0.0001	0	99999	762	762	0	0	1	-360	360	59.5331	8.5955	-59.5325	-8.5924	0.0000	0.0000	0.0000	0.0000;
	10149	10136	0.00293	0.01074	0.03436	99999	408	408	0	0	1	-360	360	62.3800	0.3053	-62.2810	-3.8944	0.0000	0.0000	0.0000	0.0000;
	10149	10162	0.01595	0.06457	0.17037	99999	301	301	0	0	1	-360	360	55.8044	0.8893	-55.3575	-18.4531	0.0000	0.0000	0.0000	0.0000;
	10151	10147	0.00188	0.01925	0.8432	99999	1386	1386	0	0	1	-360	360	221.1257	-8.4587	-220.2539	-73.1617	0.0000	0.0000	0.0000	0.0000;
	10152	10164	0.00364	0.03742	1.6384	99999	1746	1746	0	0	1	-360	360	191.2503	-52.1661	-189.9878	-111.2501	0.0000	0.0000	0.0000	0.0000;
	10156	10165	0.00131	0.011	0.5168	99999	831	831	0	0	1	-360	360	94.5357	-60.5713	-94.4119	6.6325	0.0000	0.0000	0.0000	0.0000;
	10158	10081	0.00127	0.0132	0.5505	99999	1746	1746	0	0	1	-360	360	-299.2972	-153.1200	300.5968	108.8871	0.0000	0.0000	0.0000	0.0000;
	10091	10164	0.0023	0.02084	0.8752	99999	1746	1746	0	0	1	-360	360	-33.5626	13.0009	33.6639	-105.7091	0.0000	0.0000	0.0000	0.0000;
	10159	10163	0.00517	0.03967	0.12439	99999	457	457	0	0	1	-360	360	140.4764	20.4157	-139.6153	-28.9220	0.0000	0.0000	0.0000	0.0000;
	10159	10163	0.00517	0.03967	0.12439	99999	457	457	0	0	1	-360	360	140.4764	20.4157	-139.6153	-28.9220	0.0000	0.0000	0.0000	0.0000;
	10160	10137	0.0099	0.03659	0.11674	99999	343	343	0	0	1	-360	360	-37.9478	76.0229	38.6694	-86.2996	0.0000	0.0000	0.0000	0.0000;
	10161	10145	0.00088	0.007	0.3296	99999	1787	1787	0	0	1	-360	360	-222.7456	167.4556	223.4524	-195.8297	0.0000	0.0000	0.0000	0.0000;
	10162	10122	0.00527	0.0193	0.06156	99999	408	408	0	0	1	-360	360	95.0801	20.9246	-94.6276	-26.1151	0.0000	0.0000	0.0000	0.0000;
	10162	10122	0.00527	0.0193	0.06156	99999	408	408	0	0	1	-360	360	95.0801	20.9246	-94.6276	-26.1151	0.0000	0.0000	0.0000	0.0000;
	10164	10165	0.00323	0.03369	1.40518	99999	1746	1746	0	0	1	-360	360	51.1270	-90.9881	-51.0388	-57.3473	0.0000	0.0000	0.0000	0.0000;
	10164	10080	6e-05	0.00059	0.02467	99999	1746	1746	0	0	1	-360	360	-128.0416	81.4703	128.0548	-83.9500	0.0000	0.0000	0.0000	0.0000;
	10092	10089	0.00046	0.00474	0.01943	99999	960	960	0	0	1	-360	360	-41.9671	-34.1448	41.9782	31.9703	0.0000	0.0000	0.0000	0.0000;
	10164	10080	6e-05	0.00059	0.02467	99999	1746	1746	0	0	1	-360	360	-128.0416	81.4703	128.0548	-83.9500	0.0000	0.0000	0.0000	0.0000;
	10165	10091	0.00067	0.00696	0.2904	99999	1746	1746	0	0	1	-360	360	-146.1728	-109.4542	146.3625	80.2396	0.0000	0.0000	0.0000	0.0000;
	10167	10169	8e-05	0.00067	0.02976	99999	1884	1884	0	0	1	-360	360	-132.7750	-38.5686	132.7893	35.5362	0.0000	0.0000	0.0000	0.0000;
	10168	10170	8e-05	0.00067	0.02976	99999	1884	1884	0	0	1	-360	360	-132.7750	-38.5686	132.7893	35.5362	0.0000	0.0000	0.0000	0.0000;
	10310	10311	8e-05	0.00041	0	99999	111	111	0	0	1	-360	360	0.0000	0.0000	0.0000	0.0000	0.0000	0.0000	0.0000	0.0000;
	10330	10359	0.01322	0.04793	0.0092	99999	204	204	0	0	1	-360	360	-133.5000	-25.5000	135.8283	32.9483	0.0000	0.0000	0.0000	0.0000;
	10331	10359	0.01322	0.04793	0.0092	99999	204	204	0	0	1	-360	360	-133.5000	-25.5000	135.8283	32.9483	0.0000	0.0000	0.0000	0.0000;
	10092	10157	0.00627	0.02339	0.07357	99999	343	343	0	0	1	-360	360	-15.6069	-7.8963	15.6206	-0.7216	0.0000	0.0000	0.0000	0.0000;
	10346	10347	8e-05	0.00041	0	99999	150	150	0	0	1	-360	360	0.0000	0.0000	0.0000	0.0000	0.0000	0.0000	0.0000	0.0000;
	10359	10310	0.02975	0.10992	0.0219	99999	204	204	0	0	1	-360	360	28.7296	4.4461	-28.5000	-6.0000	0.0000	0.0000	0.0000	0.0000;
	10359	10311	0.02975	0.10992	0.0219	99999	204	204	0	0	1	-360	360	28.7296	4.4461	-28.5000	-6.0000	0.0000	0.0000	0.0000	0.0000;
	10359	10346	0.01157	0.04298	0.00859	99999	183	183	0	0	1	-360	360	67.9886	7.8700	-67.5000	-7.0000	0.0000	0.0000	0.0000	0.0000;
	10359	10347	0.01157	0.04298	0.00859	99999	183	183	0	0	1	-360	360	67.9886	7.8700	-67.5000	-7.0000	0.0000	0.0000	0.0000	0.0000;
	10301	10319	0.01298	0.09959	0.01949	99999	229	229	0	0	1	-360	360	0.1415	17.0314	-0.1047	-18.9800	0.0000	0.0000	0.0000	0.0000;
	10301	10319	0.01298	0.09959	0.01949	99999	229	229	0	0	1	-360	360	0.1415	17.0314	-0.1047	-18.9800	0.0000	0.0000	0.0000	0.0000;
	10301	10327	0.03223	0.16033	0.03037	99999	229	229	0	0	1	-360	360	54.0355	26.7987	-53.0000	-25.0000	0.0000	0.0000	0.0000	0.0000;
	10093	10088	0.00046	0.00474	0.01943	99999	960	960	0	0	1	-360	360	-32.5754	-25.6632	32.5819	23.4301	0.0000	0.0000	0.0000	0.0000;
	10301	10327	0.03223	0.16033	0.03037	99999	229	229	0	0	1	-360	360	54.0355	26.7987	-53.0000	-25.0000	0.0000	0.0000	0.0000	0.0000;
	10313	10314	1e-05	0.00041	0	99999	381	381	0	0	1	-360	360	-7.5954	-1.4219	7.5954	1.4222	0.0000	0.0000	0.0000	0.0000;
	10315	10316	1e-05	0.00041	0	99999	191	191	0	0	1	-360	360	3.3971	39.3470	-3.3970	-39.3417	0.0000	0.0000	0.0000	0.0000;
	10315	10317	1e-05	0.00041	0	99999	191	191	0	0	1	-360	360	-6.7974	-78.9223	6.7979	78.9438	0.0000	0.0000	0.0000	0.0000;
	10339	10313	0.00012	0.00118	0.00028	99999	389	389	0	0	1	-360	360	-7.5953	-1.4518	7.5954	1.4219	0.0000	0.0000	0.0000	0.0000;
	10339	10340	1e-05	0.00041	0	99999	381	381	0	0	1	-360	360	-41.2422	-10.5288	41.2423	10.5356	0.0000	0.0000	0.0000	0.0000;
	10340	10314	7e-05	0.00066	0.00016	99999	389	389	0	0	1	-360	360	7.5954	1.4051	-7.5954	-1.4222	0.0000	0.0000	0.0000	0.0000;
	10354	10353	1e-05	0.00041	0	99999	381	381	0	0	1	-360	360	0.0000	0.0000	0.0000	0.0000	0.0000	0.0000	0.0000	0.0000;
	10303	10304	8e-05	0.00041	0	99999	229	229	0	0	1	-360	360	0.0000	0.0000	0.0000	0.0000	0.0000	0.0000	0.0000	0.0000;
	10093	10157	0.0064	0.02314	0.07299	99999	343	343	0	0	1	-360	360	-0.6086	0.4652	0.6098	-9.0823	0.0000	0.0000	0.0000	0.0000;
	10322	10323	8e-05	0.00041	0	99999	114	114	0	0	1	-360	360	0.0000	0.0000	0.0000	0.0000	0.0000	0.0000	0.0000	0.0000;
	10099	10115	0.00014	0.00127	0.0568	99999	1746	1746	0	0	1	-360	360	-280.6197	223.6513	280.8000	-227.7368	0.0000	0.0000	0.0000	0.0000;
	10084	10087	7e-05	0.00077	0.4808	99999	1351	1351	0	0	1	-360	360	-307.4207	-140.9111	307.4902	89.4698	0.0000	0.0000	0.0000	0.0000;
	10099	10116	0.00014	0.00127	0.0568	99999	1746	1746	0	0	1	-360	360	-280.6197	223.6513	280.8000	-227.7368	0.0000	0.0000	0.0000	0.0000;
	10099	10145	0.00091	0.00842	0.37584	99999	1386	1386	0	0	1	-360	360	268.8661	-109.4646	-268.1408	78.0197	0.0000	0.0000	0.0000	0.0000;
	10099	10145	0.00091	0.00842	0.37584	99999	1386	1386	0	0	1	-360	360	268.8661	-109.4646	-268.1408	78.0197	0.0000	0.0000	0.0000	0.0000;
	10099	10158	0.00115	0.01064	0.47546	99999	1884	1884	0	0	1	-360	360	77.2436	-115.8820	-77.0795	68.9640	0.0000	0.0000	0.0000	0.0000;
	10099	10158	0.00115	0.01064	0.47546	99999	1884	1884	0	0	1	-360	360	77.2436	-115.8820	-77.0795	68.9640	0.0000	0.0000	0.0000	0.0000;
	10099	10079	0.00206	0.01905	0.85158	99999	1884	1884	0	0	1	-360	360	-222.7224	-58.4251	223.7393	-18.8782	0.0000	0.0000	0.0000	0.0000;
	10099	10079	0.00206	0.01905	0.85158	99999	1884	1884	0	0	1	-360	360	-222.7224	-58.4251	223.7393	-18.8782	0.0000	0.0000	0.0000	0.0000;
	10100	10118	0.00034	0.00354	0.1544	99999	1732	1732	0	0	1	-360	360	-195.8259	2.5299	195.9467	-17.9915	0.0000	0.0000	0.0000	0.0000;
	10100	10118	0.00034	0.00354	0.1544	99999	1732	1732	0	0	1	-360	360	-195.8259	2.5299	195.9467	-17.9915	0.0000	0.0000	0.0000	0.0000;
	10100	10151	0.00075	0.00744	0.3264	99999	1386	1386	0	0	1	-360	360	581.7187	-76.2233	-579.3505	64.3520	0.0000	0.0000	0.0000	0.0000;
	10084	10087	7e-05	0.00076	0.51264	99999	1351	1351	0	0	1	-360	360	-311.5697	-143.7668	311.6410	88.8782	0.0000	0.0000	0.0000	0.0000;
	10100	10151	0.00075	0.00744	0.3264	99999	1386	1386	0	0	1	-360	360	581.7187	-76.2233	-579.3505	64.3520	0.0000	0.0000	0.0000	0.0000;
	10100	10153	0.00144	0.01506	0.6592	99999	1386	1386	0	0	1	-360	360	247.7072	11.2797	-246.8616	-73.1426	0.0000	0.0000	0.0000	0.0000;
	10100	10153	0.00144	0.01506	0.6592	99999	1386	1386	0	0	1	-360	360	247.7072	11.2797	-246.8616	-73.1426	0.0000	0.0000	0.0000	0.0000;
	10101	10135	0.01399	0.05116	0.16408	99999	343	343	0	0	1	-360	360	-252.1533	59.2090	260.9472	-45.0101	0.0000	0.0000	0.0000	0.0000;
	10101	10137	0.0049	0.01791	0.0574	99999	343	343	0	0	1	-360	360	252.1533	-59.2090	-249.1406	63.9982	0.0000	0.0000	0.0000	0.0000;
	10102	10166	0.00909	0.03285	0.10503	99999	343	343	0	0	1	-360	360	-60.0000	-12.5000	60.2935	1.6263	0.0000	0.0000	0.0000	0.0000;
	10102	10166	0.00909	0.03285	0.10503	99999	343	343	0	0	1	-360	360	-60.0000	-12.5000	60.2935	1.6263	0.0000	0.0000	0.0000	0.0000;
	10103	10104	0.00125	0.00625	0	99999	1386	1386	0	0	1	-360	360	-338.4748	-1.4712	339.8000	8.0974	0.0000	0.0000	0.0000	0.0000;
	10103	10120	0.00061	0.00564	0.252	99999	1884	1884	0	0	1	-360	360	162.2301	-31.6138	-162.0797	5.7709	0.0000	0.0000	0.0000	0.0000;
	10103	10120	0.00061	0.00564	0.252	99999	1884	1884	0	0	1	-360	360	162.2301	-31.6138	-162.0797	5.7709	0.0000	0.0000	0.0000	0.0000;
	10085	10084	8e-05	0.00095	0.58816	99999	1351	1351	0	0	1	-360	360	-306.4444	-125.1721	306.5202	62.3414	0.0000	0.0000	0.0000	0.0000;
	10103	10150	0.00013	0.00119	0.05328	99999	1884	1884	0	0	1	-360	360	-201.5509	-16.9215	201.6000	11.6111	0.0000	0.0000	0.0000	0.0000;
	10105	10148	0.00492	0.01798	0.05731	99999	408	408	0	0	1	-360	360	-80.7716	-33.5796	81.0947	28.2112	0.0000	0.0000	0.0000	0.0000;
	10105	10149	0.00492	0.01798	0.05731	99999	408	408	0	0	1	-360	360	-80.4459	-33.5593	80.7667	28.1824	0.0000	0.0000	0.0000	0.0000;
	10106	10147	0.00131	0.01339	0.58672	99999	1386	1386	0	0	1	-360	360	122.4350	-18.5109	-122.2494	-42.1712	0.0000	0.0000	0.0000	0.0000;
	10106	10151	0.00056	0.00584	0.25616	99999	1386	1386	0	0	1	-360	360	-445.9035	-89.6614	446.9745	73.2407	0.0000	0.0000	0.0000	0.0000;
	10107	10109	0.00014	0.00127	0.0568	99999	1386	1386	0	0	1	-360	360	-112.5881	12.6853	112.6047	-18.7020	0.0000	0.0000	0.0000	0.0000;
	10108	10110	0.00014	0.00127	0.0568	99999	1386	1386	0	0	1	-360	360	-119.7951	11.4526	119.8139	-17.4575	0.0000	0.0000	0.0000	0.0000;
	10111	10158	0.00118	0.01186	0.50192	99999	1746	1746	0	0	1	-360	360	187.3702	64.6443	-186.8839	-111.9768	0.0000	0.0000	0.0000	0.0000;
	10111	10081	0.00051	0.00528	0.22019	99999	1746	1746	0	0	1	-360	360	-330.5643	-136.7154	331.1693	119.6037	0.0000	0.0000	0.0000	0.0000;
	10112	10159	0.00153	0.00561	0.01801	99999	408	408	0	0	1	-360	360	-58.7089	-22.7579	58.7577	20.7216	0.0000	0.0000	0.0000	0.0000;
	10085	10086	0	6e-05	0	99999	2079	2079	0	0	1	-360	360	83.5911	19.7330	-83.5911	-19.7289	0.0000	0.0000	0.0000	0.0000;
	10112	10159	0.00109	0.004	0.01284	99999	408	408	0	0	1	-360	360	-82.3376	-31.1747	82.4060	29.8464	0.0000	0.0000	0.0000	0.0000;
	10112	10159	0.00109	0.004	0.01284	99999	408	408	0	0	1	-360	360	-82.3376	-31.1747	82.4060	29.8464	0.0000	0.0000	0.0000	0.0000;
	10113	10141	0.00031	0.00286	0.12781	99999	1884	1884	0	0	1	-360	360	-536.7012	244.6836	537.7517	-248.1689	0.0000	0.0000	0.0000	0.0000;
	10113	10153	0.00037	0.00343	0.15334	99999	1884	1884	0	0	1	-360	360	133.4927	-402.1563	-132.8743	391.7962	0.0000	0.0000	0.0000	0.0000;
	10114	10127	0.01116	0.04091	0.13068	99999	366	366	0	0	1	-360	360	8.6291	-24.8280	-8.5948	9.3324	0.0000	0.0000	0.0000	0.0000;
	10183	10198	0.00084	0.01065	0.39616	99999	831	831	0	0	1	-360	360	71.8193	-8.1781	-71.7785	-34.7860	0.0000	0.0000	0.0000	0.0000;
	10183	10217	0.00146	0.01809	0.63888	99999	831	831	0	0	1	-360	360	189.3304	-55.4186	-188.8490	-8.9604	0.0000	0.0000	0.0000	0.0000;
	10184	10199	0.01019	0.06849	0.1012	99999	326	326	0	0	1	-360	360	-127.0551	-29.2980	128.5968	28.1546	0.0000	0.0000	0.0000	0.0000;
	10184	10209	0.01204	0.06105	0.08659	99999	274	274	0	0	1	-360	360	19.4106	-18.2114	-19.3499	8.9072	0.0000	0.0000	0.0000	0.0000;
	10184	10216	0.01029	0.0401	0.10522	99999	274	274	0	0	1	-360	360	37.6445	-1.4906	-37.5107	-9.5477	0.0000	0.0000	0.0000	0.0000;
	10185	10205	0.00065	0.00657	0.2224	99999	831	831	0	0	1	-360	360	-0.0000	0.0000	0.0009	-24.4647	0.0000	0.0000	0.0000	0.0000;
	10186	10199	0.00155	0.01508	0.02396	99999	535	535	0	0	1	-360	360	342.7000	27.0295	-341.1554	-14.8250	0.0000	0.0000	0.0000	0.0000;
	10187	10200	0.00156	0.01518	0.02415	99999	535	535	0	0	1	-360	360	342.7000	27.1309	-341.1456	-14.8506	0.0000	0.0000	0.0000	0.0000;
	10188	10183	0.00057	0.00724	0.26592	99999	831	831	0	0	1	-360	360	347.8000	-76.5032	-347.1497	55.5967	0.0000	0.0000	0.0000	0.0000;
	10189	10198	0.00028	0.00346	0.1312	99999	831	831	0	0	1	-360	360	272.8000	-60.2776	-272.6022	48.3630	0.0000	0.0000	0.0000	0.0000;
	10192	10193	0	0.0001	0	99999	762	762	0	0	1	-360	360	43.6877	4.5086	-43.6877	-4.5068	0.0000	0.0000	0.0000	0.0000;
	10192	10222	0.00488	0.0332	0.05542	99999	346	346	0	0	1	-360	360	67.9123	14.8408	-67.6902	-19.2850	0.0000	0.0000	0.0000	0.0000;
	10196	10208	0.00059	0.00752	0.26672	99999	1386	1386	0	0	1	-360	360	-123.3987	-69.9603	123.4984	42.1975	0.0000	0.0000	0.0000	0.0000;
	10197	10215	0.00092	0.01193	0.47104	99999	1109	1109	0	0	1	-360	360	39.5166	-73.1388	-39.4844	21.9653	0.0000	0.0000	0.0000	0.0000;
	10198	10208	0.00081	0.00867	0.27808	99999	831	831	0	0	1	-360	360	293.3950	-27.2868	-292.7575	3.6741	0.0000	0.0000	0.0000	0.0000;
	10199	10200	0	0.0001	0	99999	762	762	0	0	1	-360	360	-341.1456	-14.7509	341.1456	14.8506	0.0000	0.0000	0.0000	0.0000;
	10199	10211	0.00752	0.04678	0.06534	99999	323	323	0	0	1	-360	360	187.3376	6.5023	-185.0746	0.0339	0.0000	0.0000	0.0000	0.0000;
	10201	10213	0.00112	0.01179	0.35472	99999	738	738	0	0	1	-360	360	221.9878	-110.9003	-221.3742	79.6366	0.0000	0.0000	0.0000	0.0000;
	10201	10220	0.00156	0.01658	0.4112	99999	738	738	0	0	1	-360	360	-160.5418	-64.4678	160.9501	25.0293	0.0000	0.0000	0.0000	0.0000;
	10202	10193	0.01	0.06793	0.1134	99999	274	274	0	0	1	-360	360	-43.5011	-15.3993	43.6877	4.5068	0.0000	0.0000	0.0000	0.0000;
...